*SPEF "ieee 1481-1999"
*DESIGN "user_proj_example"
*DATE "11:11:11 Fri 11 11, 1111"
*VENDOR "OpenRCX"
*PROGRAM "Parallel Extraction"
*VERSION "1.0"
*DESIGN_FLOW "NAME_SCOPE LOCAL" "PIN_CAP NONE"
*DIVIDER /
*DELIMITER :
*BUS_DELIMITER []
*T_UNIT 1 NS
*C_UNIT 1 PF
*R_UNIT 1 OHM
*L_UNIT 1 HENRY

*NAME_MAP
*1 io_in[0]
*2 io_in[10]
*3 io_in[11]
*4 io_in[12]
*5 io_in[13]
*6 io_in[14]
*7 io_in[15]
*8 io_in[16]
*9 io_in[17]
*10 io_in[18]
*11 io_in[19]
*12 io_in[1]
*13 io_in[20]
*14 io_in[21]
*15 io_in[22]
*16 io_in[23]
*17 io_in[24]
*18 io_in[25]
*19 io_in[26]
*20 io_in[27]
*21 io_in[28]
*22 io_in[29]
*23 io_in[2]
*24 io_in[30]
*25 io_in[31]
*26 io_in[32]
*27 io_in[33]
*28 io_in[34]
*29 io_in[35]
*30 io_in[36]
*31 io_in[37]
*32 io_in[3]
*33 io_in[4]
*34 io_in[5]
*35 io_in[6]
*36 io_in[7]
*37 io_in[8]
*38 io_in[9]
*39 io_oeb[0]
*40 io_oeb[10]
*41 io_oeb[11]
*42 io_oeb[12]
*43 io_oeb[13]
*44 io_oeb[14]
*45 io_oeb[15]
*46 io_oeb[16]
*47 io_oeb[17]
*48 io_oeb[18]
*49 io_oeb[19]
*50 io_oeb[1]
*51 io_oeb[20]
*52 io_oeb[21]
*53 io_oeb[22]
*54 io_oeb[23]
*55 io_oeb[24]
*56 io_oeb[25]
*57 io_oeb[26]
*58 io_oeb[27]
*59 io_oeb[28]
*60 io_oeb[29]
*61 io_oeb[2]
*62 io_oeb[30]
*63 io_oeb[31]
*64 io_oeb[32]
*65 io_oeb[33]
*66 io_oeb[34]
*67 io_oeb[35]
*68 io_oeb[36]
*69 net216
*70 io_oeb[3]
*71 io_oeb[4]
*72 io_oeb[5]
*73 io_oeb[6]
*74 io_oeb[7]
*75 io_oeb[8]
*76 io_oeb[9]
*77 io_out[0]
*78 io_out[10]
*79 io_out[11]
*80 io_out[12]
*81 io_out[13]
*82 io_out[14]
*83 io_out[15]
*84 io_out[16]
*85 io_out[17]
*86 io_out[18]
*87 io_out[19]
*88 io_out[1]
*89 io_out[20]
*90 io_out[21]
*91 io_out[22]
*92 io_out[23]
*93 io_out[24]
*94 io_out[25]
*95 io_out[26]
*96 io_out[27]
*97 io_out[28]
*98 io_out[29]
*99 io_out[2]
*100 io_out[30]
*101 io_out[31]
*102 net217
*103 net218
*104 net219
*105 net220
*106 net221
*107 net222
*108 io_out[3]
*109 io_out[4]
*110 io_out[5]
*111 io_out[6]
*112 io_out[7]
*113 io_out[8]
*114 io_out[9]
*115 net223
*116 net224
*117 net225
*118 la_data_in[0]
*119 la_data_in[100]
*120 la_data_in[101]
*121 la_data_in[102]
*122 la_data_in[103]
*123 la_data_in[104]
*124 la_data_in[105]
*125 la_data_in[106]
*126 la_data_in[107]
*127 la_data_in[108]
*128 la_data_in[109]
*129 la_data_in[10]
*130 la_data_in[110]
*131 la_data_in[111]
*132 la_data_in[112]
*133 la_data_in[113]
*134 la_data_in[114]
*135 la_data_in[115]
*136 la_data_in[116]
*137 la_data_in[117]
*138 la_data_in[118]
*139 la_data_in[119]
*140 la_data_in[11]
*141 la_data_in[120]
*142 la_data_in[121]
*143 la_data_in[122]
*144 la_data_in[123]
*145 la_data_in[124]
*146 la_data_in[125]
*147 la_data_in[126]
*148 la_data_in[127]
*149 la_data_in[12]
*150 la_data_in[13]
*151 la_data_in[14]
*152 la_data_in[15]
*153 la_data_in[16]
*154 la_data_in[17]
*155 la_data_in[18]
*156 la_data_in[19]
*157 la_data_in[1]
*158 la_data_in[20]
*159 la_data_in[21]
*160 la_data_in[22]
*161 la_data_in[23]
*162 la_data_in[24]
*163 la_data_in[25]
*164 la_data_in[26]
*165 la_data_in[27]
*166 la_data_in[28]
*167 la_data_in[29]
*168 la_data_in[2]
*169 la_data_in[30]
*170 la_data_in[31]
*171 la_data_in[32]
*172 la_data_in[33]
*173 la_data_in[34]
*174 la_data_in[35]
*175 la_data_in[36]
*176 la_data_in[37]
*177 la_data_in[38]
*178 la_data_in[39]
*179 la_data_in[3]
*180 la_data_in[40]
*181 la_data_in[41]
*182 la_data_in[42]
*183 la_data_in[43]
*184 la_data_in[44]
*185 la_data_in[45]
*186 la_data_in[46]
*187 la_data_in[47]
*188 la_data_in[48]
*189 la_data_in[49]
*190 la_data_in[4]
*191 la_data_in[50]
*192 la_data_in[51]
*193 la_data_in[52]
*194 la_data_in[53]
*195 la_data_in[54]
*196 la_data_in[55]
*197 la_data_in[56]
*198 la_data_in[57]
*199 la_data_in[58]
*200 la_data_in[59]
*201 la_data_in[5]
*202 la_data_in[60]
*203 la_data_in[61]
*204 la_data_in[62]
*205 la_data_in[63]
*206 la_data_in[64]
*207 la_data_in[65]
*208 la_data_in[66]
*209 la_data_in[67]
*210 la_data_in[68]
*211 la_data_in[69]
*212 la_data_in[6]
*213 la_data_in[70]
*214 la_data_in[71]
*215 la_data_in[72]
*216 la_data_in[73]
*217 la_data_in[74]
*218 la_data_in[75]
*219 la_data_in[76]
*220 la_data_in[77]
*221 la_data_in[78]
*222 la_data_in[79]
*223 la_data_in[7]
*224 la_data_in[80]
*225 la_data_in[81]
*226 la_data_in[82]
*227 la_data_in[83]
*228 la_data_in[84]
*229 la_data_in[85]
*230 la_data_in[86]
*231 la_data_in[87]
*232 la_data_in[88]
*233 la_data_in[89]
*234 la_data_in[8]
*235 la_data_in[90]
*236 la_data_in[91]
*237 la_data_in[92]
*238 la_data_in[93]
*239 la_data_in[94]
*240 la_data_in[95]
*241 la_data_in[96]
*242 la_data_in[97]
*243 la_data_in[98]
*244 la_data_in[99]
*245 la_data_in[9]
*246 la_data_out[0]
*247 net294
*248 net295
*249 net296
*250 net297
*251 net298
*252 net299
*253 net300
*254 net301
*255 net302
*256 net303
*257 la_data_out[10]
*258 net304
*259 net305
*260 net306
*261 net307
*262 net308
*263 net309
*264 net310
*265 net311
*266 net312
*267 net313
*268 la_data_out[11]
*269 net314
*270 net315
*271 net316
*272 net317
*273 net318
*274 net319
*275 net320
*276 net321
*277 la_data_out[12]
*278 la_data_out[13]
*279 la_data_out[14]
*280 la_data_out[15]
*281 la_data_out[16]
*282 la_data_out[17]
*283 la_data_out[18]
*284 la_data_out[19]
*285 la_data_out[1]
*286 la_data_out[20]
*287 la_data_out[21]
*288 la_data_out[22]
*289 la_data_out[23]
*290 la_data_out[24]
*291 la_data_out[25]
*292 la_data_out[26]
*293 la_data_out[27]
*294 la_data_out[28]
*295 la_data_out[29]
*296 la_data_out[2]
*297 la_data_out[30]
*298 la_data_out[31]
*299 net226
*300 net227
*301 net228
*302 net229
*303 net230
*304 net231
*305 net232
*306 net233
*307 la_data_out[3]
*308 net234
*309 net235
*310 net236
*311 net237
*312 net238
*313 net239
*314 net240
*315 net241
*316 net242
*317 net243
*318 la_data_out[4]
*319 net244
*320 net245
*321 net246
*322 net247
*323 net248
*324 net249
*325 net250
*326 net251
*327 net252
*328 net253
*329 la_data_out[5]
*330 net254
*331 net255
*332 net256
*333 net257
*334 net258
*335 net259
*336 net260
*337 net261
*338 net262
*339 net263
*340 la_data_out[6]
*341 net264
*342 net265
*343 net266
*344 net267
*345 net268
*346 net269
*347 net270
*348 net271
*349 net272
*350 net273
*351 la_data_out[7]
*352 net274
*353 net275
*354 net276
*355 net277
*356 net278
*357 net279
*358 net280
*359 net281
*360 net282
*361 net283
*362 la_data_out[8]
*363 net284
*364 net285
*365 net286
*366 net287
*367 net288
*368 net289
*369 net290
*370 net291
*371 net292
*372 net293
*373 la_data_out[9]
*374 la_oenb[0]
*375 la_oenb[100]
*376 la_oenb[101]
*377 la_oenb[102]
*378 la_oenb[103]
*379 la_oenb[104]
*380 la_oenb[105]
*381 la_oenb[106]
*382 la_oenb[107]
*383 la_oenb[108]
*384 la_oenb[109]
*385 la_oenb[10]
*386 la_oenb[110]
*387 la_oenb[111]
*388 la_oenb[112]
*389 la_oenb[113]
*390 la_oenb[114]
*391 la_oenb[115]
*392 la_oenb[116]
*393 la_oenb[117]
*394 la_oenb[118]
*395 la_oenb[119]
*396 la_oenb[11]
*397 la_oenb[120]
*398 la_oenb[121]
*399 la_oenb[122]
*400 la_oenb[123]
*401 la_oenb[124]
*402 la_oenb[125]
*403 la_oenb[126]
*404 la_oenb[127]
*405 la_oenb[12]
*406 la_oenb[13]
*407 la_oenb[14]
*408 la_oenb[15]
*409 la_oenb[16]
*410 la_oenb[17]
*411 la_oenb[18]
*412 la_oenb[19]
*413 la_oenb[1]
*414 la_oenb[20]
*415 la_oenb[21]
*416 la_oenb[22]
*417 la_oenb[23]
*418 la_oenb[24]
*419 la_oenb[25]
*420 la_oenb[26]
*421 la_oenb[27]
*422 la_oenb[28]
*423 la_oenb[29]
*424 la_oenb[2]
*425 la_oenb[30]
*426 la_oenb[31]
*427 la_oenb[32]
*428 la_oenb[33]
*429 la_oenb[34]
*430 la_oenb[35]
*431 la_oenb[36]
*432 la_oenb[37]
*433 la_oenb[38]
*434 la_oenb[39]
*435 la_oenb[3]
*436 la_oenb[40]
*437 la_oenb[41]
*438 la_oenb[42]
*439 la_oenb[43]
*440 la_oenb[44]
*441 la_oenb[45]
*442 la_oenb[46]
*443 la_oenb[47]
*444 la_oenb[48]
*445 la_oenb[49]
*446 la_oenb[4]
*447 la_oenb[50]
*448 la_oenb[51]
*449 la_oenb[52]
*450 la_oenb[53]
*451 la_oenb[54]
*452 la_oenb[55]
*453 la_oenb[56]
*454 la_oenb[57]
*455 la_oenb[58]
*456 la_oenb[59]
*457 la_oenb[5]
*458 la_oenb[60]
*459 la_oenb[61]
*460 la_oenb[62]
*461 la_oenb[63]
*462 la_oenb[64]
*463 la_oenb[65]
*464 la_oenb[66]
*465 la_oenb[67]
*466 la_oenb[68]
*467 la_oenb[69]
*468 la_oenb[6]
*469 la_oenb[70]
*470 la_oenb[71]
*471 la_oenb[72]
*472 la_oenb[73]
*473 la_oenb[74]
*474 la_oenb[75]
*475 la_oenb[76]
*476 la_oenb[77]
*477 la_oenb[78]
*478 la_oenb[79]
*479 la_oenb[7]
*480 la_oenb[80]
*481 la_oenb[81]
*482 la_oenb[82]
*483 la_oenb[83]
*484 la_oenb[84]
*485 la_oenb[85]
*486 la_oenb[86]
*487 la_oenb[87]
*488 la_oenb[88]
*489 la_oenb[89]
*490 la_oenb[8]
*491 la_oenb[90]
*492 la_oenb[91]
*493 la_oenb[92]
*494 la_oenb[93]
*495 la_oenb[94]
*496 la_oenb[95]
*497 la_oenb[96]
*498 la_oenb[97]
*499 la_oenb[98]
*500 la_oenb[99]
*501 la_oenb[9]
*504 wb_clk_i
*505 wb_rst_i
*506 wbs_ack_o
*507 wbs_adr_i[0]
*508 wbs_adr_i[10]
*509 wbs_adr_i[11]
*510 wbs_adr_i[12]
*511 wbs_adr_i[13]
*512 wbs_adr_i[14]
*513 wbs_adr_i[15]
*514 wbs_adr_i[16]
*515 wbs_adr_i[17]
*516 wbs_adr_i[18]
*517 wbs_adr_i[19]
*518 wbs_adr_i[1]
*519 wbs_adr_i[20]
*520 wbs_adr_i[21]
*521 wbs_adr_i[22]
*522 wbs_adr_i[23]
*523 wbs_adr_i[24]
*524 wbs_adr_i[25]
*525 wbs_adr_i[26]
*526 wbs_adr_i[27]
*527 wbs_adr_i[28]
*528 wbs_adr_i[29]
*529 wbs_adr_i[2]
*530 wbs_adr_i[30]
*531 wbs_adr_i[31]
*532 wbs_adr_i[3]
*533 wbs_adr_i[4]
*534 wbs_adr_i[5]
*535 wbs_adr_i[6]
*536 wbs_adr_i[7]
*537 wbs_adr_i[8]
*538 wbs_adr_i[9]
*539 wbs_cyc_i
*540 wbs_dat_i[0]
*541 wbs_dat_i[10]
*542 wbs_dat_i[11]
*543 wbs_dat_i[12]
*544 wbs_dat_i[13]
*545 wbs_dat_i[14]
*546 wbs_dat_i[15]
*547 wbs_dat_i[16]
*548 wbs_dat_i[17]
*549 wbs_dat_i[18]
*550 wbs_dat_i[19]
*551 wbs_dat_i[1]
*552 wbs_dat_i[20]
*553 wbs_dat_i[21]
*554 wbs_dat_i[22]
*555 wbs_dat_i[23]
*556 wbs_dat_i[24]
*557 wbs_dat_i[25]
*558 wbs_dat_i[26]
*559 wbs_dat_i[27]
*560 wbs_dat_i[28]
*561 wbs_dat_i[29]
*562 wbs_dat_i[2]
*563 wbs_dat_i[30]
*564 wbs_dat_i[31]
*565 wbs_dat_i[3]
*566 wbs_dat_i[4]
*567 wbs_dat_i[5]
*568 wbs_dat_i[6]
*569 wbs_dat_i[7]
*570 wbs_dat_i[8]
*571 wbs_dat_i[9]
*572 wbs_dat_o[0]
*573 wbs_dat_o[10]
*574 wbs_dat_o[11]
*575 wbs_dat_o[12]
*576 wbs_dat_o[13]
*577 wbs_dat_o[14]
*578 wbs_dat_o[15]
*579 wbs_dat_o[16]
*580 wbs_dat_o[17]
*581 wbs_dat_o[18]
*582 wbs_dat_o[19]
*583 wbs_dat_o[1]
*584 wbs_dat_o[20]
*585 wbs_dat_o[21]
*586 wbs_dat_o[22]
*587 wbs_dat_o[23]
*588 wbs_dat_o[24]
*589 wbs_dat_o[25]
*590 wbs_dat_o[26]
*591 wbs_dat_o[27]
*592 wbs_dat_o[28]
*593 wbs_dat_o[29]
*594 wbs_dat_o[2]
*595 wbs_dat_o[30]
*596 wbs_dat_o[31]
*597 wbs_dat_o[3]
*598 wbs_dat_o[4]
*599 wbs_dat_o[5]
*600 wbs_dat_o[6]
*601 wbs_dat_o[7]
*602 wbs_dat_o[8]
*603 wbs_dat_o[9]
*604 wbs_sel_i[0]
*605 wbs_sel_i[1]
*606 wbs_sel_i[2]
*607 wbs_sel_i[3]
*608 wbs_stb_i
*609 wbs_we_i
*610 _0000_
*611 _0001_
*612 _0002_
*613 _0003_
*614 _0004_
*615 _0005_
*616 _0006_
*617 _0007_
*618 _0008_
*619 _0009_
*620 _0010_
*621 _0011_
*622 _0012_
*623 _0013_
*624 _0014_
*625 _0015_
*626 _0016_
*627 _0017_
*628 _0018_
*629 _0019_
*630 _0020_
*631 _0021_
*632 _0022_
*633 _0023_
*634 _0024_
*635 _0025_
*636 _0026_
*637 _0027_
*638 _0028_
*639 _0029_
*640 _0030_
*641 _0031_
*642 _0032_
*643 _0033_
*644 _0034_
*645 _0035_
*646 _0036_
*647 _0037_
*648 _0038_
*649 _0039_
*650 _0040_
*651 _0041_
*652 _0042_
*653 _0043_
*654 _0044_
*655 _0045_
*656 _0046_
*657 _0047_
*658 _0048_
*659 _0049_
*660 _0050_
*661 _0051_
*662 _0052_
*663 _0053_
*664 _0054_
*665 _0055_
*666 _0056_
*667 _0057_
*668 _0058_
*669 _0059_
*670 _0060_
*671 _0061_
*672 _0062_
*673 _0063_
*674 _0064_
*675 _0065_
*676 _0066_
*677 _0067_
*678 _0068_
*679 _0069_
*680 _0070_
*681 _0071_
*682 _0072_
*683 _0073_
*684 _0074_
*685 _0075_
*686 _0076_
*687 _0077_
*688 _0078_
*689 _0079_
*690 _0080_
*691 _0081_
*692 _0082_
*693 _0083_
*694 _0084_
*695 _0085_
*696 _0086_
*697 _0087_
*698 _0088_
*699 _0089_
*700 _0090_
*701 _0091_
*702 _0092_
*703 _0093_
*704 _0094_
*705 _0095_
*706 _0096_
*707 _0097_
*708 _0098_
*709 _0099_
*710 _0100_
*711 _0101_
*712 _0102_
*713 _0103_
*714 _0104_
*715 _0105_
*716 _0106_
*717 _0107_
*718 _0108_
*719 _0109_
*720 _0110_
*721 _0111_
*722 _0112_
*723 _0113_
*724 _0114_
*725 _0115_
*726 _0116_
*727 _0117_
*728 _0118_
*729 _0119_
*730 _0120_
*731 _0121_
*732 _0122_
*733 _0123_
*734 _0124_
*735 _0125_
*736 _0126_
*737 _0127_
*738 _0128_
*739 _0129_
*740 _0130_
*741 _0131_
*742 _0132_
*743 _0133_
*744 _0134_
*745 _0135_
*746 _0136_
*747 _0137_
*748 _0138_
*749 _0139_
*750 _0140_
*751 _0141_
*752 _0142_
*753 _0143_
*754 _0144_
*755 _0145_
*756 _0146_
*757 _0147_
*758 _0148_
*759 _0149_
*760 _0150_
*761 _0151_
*762 _0152_
*763 _0153_
*764 _0154_
*765 _0155_
*766 _0156_
*767 _0157_
*768 _0158_
*769 _0159_
*770 _0160_
*771 _0161_
*772 _0162_
*773 _0163_
*774 _0164_
*775 _0165_
*776 _0166_
*777 _0167_
*778 _0168_
*779 _0169_
*780 _0170_
*781 _0171_
*782 _0172_
*783 _0173_
*784 _0174_
*785 _0175_
*786 _0176_
*787 _0177_
*788 _0178_
*789 _0179_
*790 _0180_
*791 _0181_
*792 _0182_
*793 _0183_
*794 _0184_
*795 _0185_
*796 _0186_
*797 _0187_
*798 _0188_
*799 _0189_
*800 _0190_
*801 _0191_
*802 _0192_
*803 _0193_
*804 _0194_
*805 _0195_
*806 _0196_
*807 _0197_
*808 _0198_
*809 _0199_
*810 _0200_
*811 _0201_
*812 _0202_
*813 _0203_
*814 _0204_
*815 _0205_
*816 _0206_
*817 _0207_
*818 _0208_
*819 _0209_
*820 _0210_
*821 _0211_
*822 _0212_
*823 _0213_
*824 _0214_
*825 _0215_
*826 _0216_
*827 _0217_
*828 _0218_
*829 _0219_
*830 _0220_
*831 _0221_
*832 _0222_
*833 _0223_
*834 _0224_
*835 _0225_
*836 _0226_
*837 _0227_
*838 _0228_
*839 _0229_
*840 _0230_
*841 _0231_
*842 _0232_
*843 _0233_
*844 _0234_
*845 _0235_
*846 _0236_
*847 _0237_
*848 _0238_
*849 _0239_
*850 _0240_
*851 _0241_
*852 _0242_
*853 _0243_
*854 _0244_
*855 _0245_
*856 _0246_
*857 _0247_
*858 _0248_
*859 _0249_
*860 _0250_
*861 _0251_
*862 _0252_
*863 _0253_
*864 _0254_
*865 _0255_
*866 _0256_
*867 _0257_
*868 _0258_
*869 _0259_
*870 _0260_
*871 _0261_
*872 _0262_
*873 _0263_
*874 _0264_
*875 _0265_
*876 _0266_
*877 _0267_
*878 _0268_
*879 _0269_
*880 _0270_
*881 _0271_
*882 _0272_
*883 _0273_
*884 _0274_
*885 _0275_
*886 _0276_
*887 _0277_
*888 _0278_
*889 _0279_
*890 _0280_
*891 _0281_
*892 _0282_
*893 _0283_
*894 _0284_
*895 _0285_
*896 _0286_
*897 _0287_
*898 _0288_
*899 _0289_
*900 _0290_
*901 _0291_
*902 _0292_
*903 _0293_
*904 _0294_
*905 _0295_
*906 _0296_
*907 _0297_
*908 _0298_
*909 _0299_
*910 _0300_
*911 _0301_
*912 _0302_
*913 _0303_
*914 _0304_
*915 _0305_
*916 _0306_
*917 _0307_
*918 _0308_
*919 _0309_
*920 _0310_
*921 _0311_
*922 _0312_
*923 _0313_
*924 _0314_
*925 _0315_
*926 _0316_
*927 _0317_
*928 _0318_
*929 _0319_
*930 _0320_
*931 _0321_
*932 _0322_
*933 _0323_
*934 _0324_
*935 _0325_
*936 _0326_
*937 _0327_
*938 _0328_
*939 _0329_
*940 _0330_
*941 _0331_
*942 _0332_
*943 _0333_
*944 _0334_
*945 _0335_
*946 _0336_
*947 _0337_
*948 _0338_
*949 _0339_
*950 _0340_
*951 _0341_
*952 _0342_
*953 _0343_
*954 _0344_
*955 _0345_
*956 _0346_
*957 _0347_
*958 _0348_
*959 _0349_
*960 _0350_
*961 _0351_
*962 _0352_
*963 _0353_
*964 _0354_
*965 _0355_
*966 _0356_
*967 _0357_
*968 _0358_
*969 _0359_
*970 _0360_
*971 _0361_
*972 _0362_
*973 _0363_
*974 _0364_
*975 _0365_
*976 _0366_
*977 _0367_
*978 _0368_
*979 _0369_
*980 _0370_
*981 _0371_
*982 _0372_
*983 _0373_
*984 _0374_
*985 _0375_
*986 _0376_
*987 _0377_
*988 _0378_
*989 _0379_
*990 _0380_
*991 _0381_
*992 _0382_
*993 _0383_
*994 _0384_
*995 _0385_
*996 _0386_
*997 _0387_
*998 _0388_
*999 _0389_
*1000 _0390_
*1001 _0391_
*1002 _0392_
*1003 _0393_
*1004 _0394_
*1005 _0395_
*1006 _0396_
*1007 _0397_
*1008 _0398_
*1009 _0399_
*1010 _0400_
*1011 _0401_
*1012 _0402_
*1013 _0403_
*1014 _0404_
*1015 _0405_
*1016 _0406_
*1017 _0407_
*1018 _0408_
*1019 _0409_
*1020 _0410_
*1021 _0411_
*1022 _0412_
*1023 _0413_
*1024 _0414_
*1025 _0415_
*1026 _0416_
*1027 _0417_
*1028 _0418_
*1029 _0419_
*1030 _0420_
*1031 _0421_
*1032 _0422_
*1033 _0423_
*1034 _0424_
*1035 _0425_
*1036 _0426_
*1037 _0427_
*1038 _0428_
*1039 _0429_
*1040 _0430_
*1041 _0431_
*1042 _0432_
*1043 _0433_
*1044 _0434_
*1045 _0435_
*1046 _0436_
*1047 _0437_
*1048 _0438_
*1049 _0439_
*1050 _0440_
*1051 _0441_
*1052 _0442_
*1053 _0443_
*1054 _0444_
*1055 _0445_
*1056 _0446_
*1057 _0447_
*1058 _0448_
*1059 _0449_
*1060 _0450_
*1061 _0451_
*1062 _0452_
*1063 _0453_
*1064 _0454_
*1065 _0455_
*1066 _0456_
*1067 _0457_
*1068 _0458_
*1069 _0459_
*1070 _0460_
*1071 _0461_
*1072 _0462_
*1073 _0463_
*1074 _0464_
*1075 _0465_
*1076 _0466_
*1077 _0467_
*1078 _0468_
*1079 _0469_
*1080 _0470_
*1081 _0471_
*1082 _0472_
*1083 _0473_
*1084 _0474_
*1085 _0475_
*1086 _0476_
*1087 _0477_
*1088 _0478_
*1089 _0479_
*1090 _0480_
*1091 _0481_
*1092 _0482_
*1093 _0483_
*1094 _0484_
*1095 _0485_
*1096 _0486_
*1097 _0487_
*1098 _0488_
*1099 _0489_
*1100 _0490_
*1101 _0491_
*1102 _0492_
*1103 _0493_
*1104 _0494_
*1105 _0495_
*1106 _0496_
*1107 _0497_
*1108 _0498_
*1109 _0499_
*1110 _0500_
*1111 _0501_
*1112 _0502_
*1113 _0503_
*1114 _0504_
*1115 _0505_
*1116 _0506_
*1117 _0507_
*1118 _0508_
*1119 _0509_
*1120 _0510_
*1121 _0511_
*1122 _0512_
*1123 _0513_
*1124 _0514_
*1125 _0515_
*1126 clknet_0_counter\.clk
*1127 clknet_1_0_0_counter\.clk
*1128 clknet_1_1_0_counter\.clk
*1129 clknet_2_0_0_counter\.clk
*1130 clknet_2_1_0_counter\.clk
*1131 clknet_2_2_0_counter\.clk
*1132 clknet_2_3_0_counter\.clk
*1133 clknet_3_0_0_counter\.clk
*1134 clknet_3_1_0_counter\.clk
*1135 clknet_3_2_0_counter\.clk
*1136 clknet_3_3_0_counter\.clk
*1137 clknet_3_4_0_counter\.clk
*1138 clknet_3_5_0_counter\.clk
*1139 clknet_3_6_0_counter\.clk
*1140 clknet_3_7_0_counter\.clk
*1141 clknet_4_0_0_counter\.clk
*1142 clknet_4_10_0_counter\.clk
*1143 clknet_4_11_0_counter\.clk
*1144 clknet_4_12_0_counter\.clk
*1145 clknet_4_13_0_counter\.clk
*1146 clknet_4_14_0_counter\.clk
*1147 clknet_4_15_0_counter\.clk
*1148 clknet_4_1_0_counter\.clk
*1149 clknet_4_2_0_counter\.clk
*1150 clknet_4_3_0_counter\.clk
*1151 clknet_4_4_0_counter\.clk
*1152 clknet_4_5_0_counter\.clk
*1153 clknet_4_6_0_counter\.clk
*1154 clknet_4_7_0_counter\.clk
*1155 clknet_4_8_0_counter\.clk
*1156 clknet_4_9_0_counter\.clk
*1157 counter\.clk
*1158 counter\.la_input_1d\[0\]
*1159 counter\.la_input_1d\[1\]
*1160 counter\.la_input_1d\[2\]
*1161 counter\.la_input_1d\[3\]
*1162 counter\.la_input_1d\[4\]
*1163 counter\.la_input_2d\[0\]
*1164 counter\.la_input_2d\[1\]
*1165 counter\.la_input_2d\[2\]
*1166 counter\.la_input_2d\[3\]
*1167 counter\.la_input_2d\[4\]
*1168 counter\.la_input_3d\[0\]
*1169 counter\.la_input_3d\[1\]
*1170 counter\.la_input_3d\[2\]
*1171 counter\.la_input_3d\[3\]
*1172 counter\.la_input_3d\[4\]
*1173 counter\.la_input_4d\[0\]
*1174 counter\.la_input_4d\[1\]
*1175 counter\.la_input_4d\[2\]
*1176 counter\.la_input_4d\[3\]
*1177 counter\.la_input_4d\[4\]
*1178 counter\.la_write_1d\[0\]
*1179 counter\.la_write_1d\[1\]
*1180 counter\.la_write_1d\[2\]
*1181 counter\.la_write_1d\[3\]
*1182 counter\.la_write_1d\[4\]
*1183 counter\.la_write_2d\[0\]
*1184 counter\.la_write_2d\[1\]
*1185 counter\.la_write_2d\[2\]
*1186 counter\.la_write_2d\[3\]
*1187 counter\.la_write_2d\[4\]
*1188 counter\.la_write_3d\[0\]
*1189 counter\.la_write_3d\[1\]
*1190 counter\.la_write_3d\[2\]
*1191 counter\.la_write_3d\[3\]
*1192 counter\.la_write_3d\[4\]
*1193 counter\.la_write_4d\[0\]
*1194 counter\.la_write_4d\[1\]
*1195 counter\.la_write_4d\[2\]
*1196 counter\.la_write_4d\[3\]
*1197 counter\.la_write_4d\[4\]
*1198 counter\.multi_out_1d\[0\]
*1199 counter\.multi_out_1d\[1\]
*1200 counter\.multi_out_1d\[2\]
*1201 counter\.multi_out_1d\[3\]
*1202 counter\.multi_out_1d\[4\]
*1203 counter\.multi_out_1d\[5\]
*1204 counter\.multi_out_1d\[6\]
*1205 counter\.multi_out_1d\[7\]
*1206 counter\.multi_out_2d\[0\]
*1207 counter\.multi_out_2d\[1\]
*1208 counter\.multi_out_2d\[2\]
*1209 counter\.multi_out_2d\[3\]
*1210 counter\.multi_out_2d\[4\]
*1211 counter\.multi_out_2d\[5\]
*1212 counter\.multi_out_2d\[6\]
*1213 counter\.multi_out_2d\[7\]
*1214 counter\.multi_out_3d\[0\]
*1215 counter\.multi_out_3d\[1\]
*1216 counter\.multi_out_3d\[2\]
*1217 counter\.multi_out_3d\[3\]
*1218 counter\.multi_out_3d\[4\]
*1219 counter\.multi_out_3d\[5\]
*1220 counter\.multi_out_3d\[6\]
*1221 counter\.multi_out_3d\[7\]
*1222 counter\.multi_out_4d\[0\]
*1223 counter\.multi_out_4d\[1\]
*1224 counter\.multi_out_4d\[2\]
*1225 counter\.multi_out_4d\[3\]
*1226 counter\.multi_out_4d\[4\]
*1227 counter\.multi_out_4d\[5\]
*1228 counter\.multi_out_4d\[6\]
*1229 counter\.multi_out_4d\[7\]
*1230 net1
*1231 net10
*1232 net100
*1233 net101
*1234 net102
*1235 net103
*1236 net104
*1237 net105
*1238 net106
*1239 net107
*1240 net108
*1241 net109
*1242 net11
*1243 net110
*1244 net111
*1245 net112
*1246 net113
*1247 net114
*1248 net115
*1249 net116
*1250 net117
*1251 net118
*1252 net119
*1253 net12
*1254 net120
*1255 net121
*1256 net122
*1257 net123
*1258 net124
*1259 net125
*1260 net126
*1261 net127
*1262 net128
*1263 net129
*1264 net13
*1265 net130
*1266 net131
*1267 net132
*1268 net133
*1269 net134
*1270 net135
*1271 net136
*1272 net137
*1273 net138
*1274 net139
*1275 net14
*1276 net140
*1277 net141
*1278 net142
*1279 net143
*1280 net144
*1281 net145
*1282 net146
*1283 net147
*1284 net148
*1285 net149
*1286 net15
*1287 net150
*1288 net151
*1289 net152
*1290 net153
*1291 net154
*1292 net155
*1293 net156
*1294 net157
*1295 net158
*1296 net159
*1297 net16
*1298 net160
*1299 net161
*1300 net162
*1301 net163
*1302 net164
*1303 net165
*1304 net166
*1305 net167
*1306 net168
*1307 net169
*1308 net17
*1309 net170
*1310 net171
*1311 net172
*1312 net173
*1313 net174
*1314 net175
*1315 net176
*1316 net177
*1317 net178
*1318 net179
*1319 net18
*1320 net180
*1321 net181
*1322 net182
*1323 net183
*1324 net184
*1325 net185
*1326 net186
*1327 net187
*1328 net188
*1329 net189
*1330 net19
*1331 net190
*1332 net191
*1333 net192
*1334 net193
*1335 net194
*1336 net195
*1337 net196
*1338 net197
*1339 net198
*1340 net199
*1341 net2
*1342 net20
*1343 net200
*1344 net201
*1345 net202
*1346 net203
*1347 net204
*1348 net205
*1349 net206
*1350 net207
*1351 net208
*1352 net209
*1353 net21
*1354 net210
*1355 net211
*1356 net212
*1357 net213
*1358 net214
*1359 net215
*1360 net22
*1361 net23
*1362 net24
*1363 net25
*1364 net26
*1365 net27
*1366 net28
*1367 net29
*1368 net3
*1369 net30
*1370 net31
*1371 net32
*1372 net33
*1373 net34
*1374 net35
*1375 net36
*1376 net37
*1377 net38
*1378 net39
*1379 net4
*1380 net40
*1381 net41
*1382 net42
*1383 net43
*1384 net44
*1385 net45
*1386 net46
*1387 net47
*1388 net48
*1389 net49
*1390 net5
*1391 net50
*1392 net51
*1393 net52
*1394 net53
*1395 net54
*1396 net55
*1397 net56
*1398 net57
*1399 net58
*1400 net59
*1401 net6
*1402 net60
*1403 net61
*1404 net62
*1405 net63
*1406 net64
*1407 net65
*1408 net66
*1409 net67
*1410 net68
*1411 net69
*1412 net7
*1413 net70
*1414 net71
*1415 net72
*1416 net73
*1417 net74
*1418 net75
*1419 net76
*1420 net77
*1421 net78
*1422 net79
*1423 net8
*1424 net80
*1425 net81
*1426 net82
*1427 net83
*1428 net84
*1429 net85
*1430 net86
*1431 net87
*1432 net88
*1433 net89
*1434 net9
*1435 net90
*1436 net91
*1437 net92
*1438 net93
*1439 net94
*1440 net95
*1441 net96
*1442 net97
*1443 net98
*1444 net99
*1445 net_HOLD_NET_0_1
*1446 net_HOLD_NET_0_10
*1447 net_HOLD_NET_0_11
*1448 net_HOLD_NET_0_12
*1449 net_HOLD_NET_0_13
*1450 net_HOLD_NET_0_14
*1451 net_HOLD_NET_0_15
*1452 net_HOLD_NET_0_16
*1453 net_HOLD_NET_0_2
*1454 net_HOLD_NET_0_3
*1455 net_HOLD_NET_0_4
*1456 net_HOLD_NET_0_5
*1457 net_HOLD_NET_0_6
*1458 net_HOLD_NET_0_7
*1459 net_HOLD_NET_0_8
*1460 net_HOLD_NET_0_9
*1461 net_HOLD_NET_1_1
*1462 net_HOLD_NET_1_10
*1463 net_HOLD_NET_1_11
*1464 net_HOLD_NET_1_12
*1465 net_HOLD_NET_1_13
*1466 net_HOLD_NET_1_14
*1467 net_HOLD_NET_1_15
*1468 net_HOLD_NET_1_16
*1469 net_HOLD_NET_1_2
*1470 net_HOLD_NET_1_3
*1471 net_HOLD_NET_1_4
*1472 net_HOLD_NET_1_5
*1473 net_HOLD_NET_1_6
*1474 net_HOLD_NET_1_7
*1475 net_HOLD_NET_1_8
*1476 net_HOLD_NET_1_9
*1477 net_HOLD_NET_2_1
*1478 net_HOLD_NET_2_10
*1479 net_HOLD_NET_2_11
*1480 net_HOLD_NET_2_12
*1481 net_HOLD_NET_2_13
*1482 net_HOLD_NET_2_14
*1483 net_HOLD_NET_2_15
*1484 net_HOLD_NET_2_16
*1485 net_HOLD_NET_2_2
*1486 net_HOLD_NET_2_3
*1487 net_HOLD_NET_2_4
*1488 net_HOLD_NET_2_5
*1489 net_HOLD_NET_2_6
*1490 net_HOLD_NET_2_7
*1491 net_HOLD_NET_2_8
*1492 net_HOLD_NET_2_9
*1493 net_HOLD_NET_3_1
*1494 net_HOLD_NET_3_2
*1495 net_HOLD_NET_4_1
*1496 net_HOLD_NET_4_2
*1497 ANTENNA__0516__A_N
*1498 ANTENNA__0516__B
*1499 ANTENNA__0517__A1
*1500 ANTENNA__0517__A2
*1501 ANTENNA__0517__B1
*1502 ANTENNA__0518__A
*1503 ANTENNA__0519__A
*1504 ANTENNA__0520__A
*1505 ANTENNA__0521__A0
*1506 ANTENNA__0521__A1
*1507 ANTENNA__0521__S
*1508 ANTENNA__0523__A
*1509 ANTENNA__0530__A
*1510 ANTENNA__0531__A
*1511 ANTENNA__0542__A
*1512 ANTENNA__0552__A
*1513 ANTENNA__0553__A
*1514 ANTENNA__0561__A
*1515 ANTENNA__0564__A
*1516 ANTENNA__0565__B
*1517 ANTENNA__0567__B
*1518 ANTENNA__0569__B
*1519 ANTENNA__0571__B
*1520 ANTENNA__0572__A
*1521 ANTENNA__0573__B
*1522 ANTENNA__0575__A
*1523 ANTENNA__0576__A
*1524 ANTENNA__0577__B
*1525 ANTENNA__0580__A
*1526 ANTENNA__0581__C
*1527 ANTENNA__0584__A
*1528 ANTENNA__0585__A
*1529 ANTENNA__0588__A_N
*1530 ANTENNA__0588__C
*1531 ANTENNA__0589__A
*1532 ANTENNA__0590__A
*1533 ANTENNA__0591__A
*1534 ANTENNA__0592__C
*1535 ANTENNA__0593__A
*1536 ANTENNA__0594__A2
*1537 ANTENNA__0594__B1
*1538 ANTENNA__0597__A
*1539 ANTENNA__0599__A1
*1540 ANTENNA__0599__C1
*1541 ANTENNA__0600__A1
*1542 ANTENNA__0600__A2
*1543 ANTENNA__0601__B
*1544 ANTENNA__0601__C
*1545 ANTENNA__0602__B
*1546 ANTENNA__0603__A2
*1547 ANTENNA__0603__B1
*1548 ANTENNA__0604__A
*1549 ANTENNA__0604__C
*1550 ANTENNA__0605__A1
*1551 ANTENNA__0606__A
*1552 ANTENNA__0607__A1
*1553 ANTENNA__0609__A
*1554 ANTENNA__0610__B
*1555 ANTENNA__0613__C1
*1556 ANTENNA__0614__B
*1557 ANTENNA__0615__A
*1558 ANTENNA__0615__B
*1559 ANTENNA__0617__A1
*1560 ANTENNA__0617__B1
*1561 ANTENNA__0618__B
*1562 ANTENNA__0619__A
*1563 ANTENNA__0619__B
*1564 ANTENNA__0619__C
*1565 ANTENNA__0620__A1
*1566 ANTENNA__0620__A2
*1567 ANTENNA__0620__B1
*1568 ANTENNA__0621__A1
*1569 ANTENNA__0621__B1_N
*1570 ANTENNA__0622__A1
*1571 ANTENNA__0622__A2
*1572 ANTENNA__0622__B1
*1573 ANTENNA__0623__A
*1574 ANTENNA__0623__B
*1575 ANTENNA__0623__C
*1576 ANTENNA__0624__C
*1577 ANTENNA__0625__A2
*1578 ANTENNA__0626__A1
*1579 ANTENNA__0626__A2
*1580 ANTENNA__0627__B1
*1581 ANTENNA__0628__A
*1582 ANTENNA__0631__B
*1583 ANTENNA__0634__C1
*1584 ANTENNA__0636__A
*1585 ANTENNA__0636__B
*1586 ANTENNA__0638__B
*1587 ANTENNA__0639__B
*1588 ANTENNA__0640__A2
*1589 ANTENNA__0640__B1
*1590 ANTENNA__0640__B2
*1591 ANTENNA__0642__A1
*1592 ANTENNA__0642__A2
*1593 ANTENNA__0642__B1_N
*1594 ANTENNA__0645__B1_N
*1595 ANTENNA__0646__B
*1596 ANTENNA__0650__B
*1597 ANTENNA__0651__A
*1598 ANTENNA__0653__A3
*1599 ANTENNA__0653__B1
*1600 ANTENNA__0654__A
*1601 ANTENNA__0654__B
*1602 ANTENNA__0655__A
*1603 ANTENNA__0655__B
*1604 ANTENNA__0656__B
*1605 ANTENNA__0657__A2
*1606 ANTENNA__0657__B1
*1607 ANTENNA__0657__B2
*1608 ANTENNA__0660__A1
*1609 ANTENNA__0660__A2
*1610 ANTENNA__0663__B
*1611 ANTENNA__0664__A2
*1612 ANTENNA__0665__A
*1613 ANTENNA__0665__B
*1614 ANTENNA__0666__A
*1615 ANTENNA__0666__B
*1616 ANTENNA__0667__A1
*1617 ANTENNA__0667__A2
*1618 ANTENNA__0667__B1
*1619 ANTENNA__0667__C1
*1620 ANTENNA__0668__A_N
*1621 ANTENNA__0668__B
*1622 ANTENNA__0669__A1
*1623 ANTENNA__0669__A2
*1624 ANTENNA__0671__A1
*1625 ANTENNA__0671__A2
*1626 ANTENNA__0672__A2
*1627 ANTENNA__0673__A
*1628 ANTENNA__0673__B
*1629 ANTENNA__0674__A
*1630 ANTENNA__0674__B
*1631 ANTENNA__0679__A
*1632 ANTENNA__0680__A
*1633 ANTENNA__0681__C1
*1634 ANTENNA__0682__B
*1635 ANTENNA__0684__B
*1636 ANTENNA__0686__B
*1637 ANTENNA__0688__B
*1638 ANTENNA__0690__A
*1639 ANTENNA__0701__A
*1640 ANTENNA__0712__A
*1641 ANTENNA__0723__A
*1642 ANTENNA__0724__B
*1643 ANTENNA__0726__B
*1644 ANTENNA__0727__A
*1645 ANTENNA__0728__B
*1646 ANTENNA__0730__B
*1647 ANTENNA__0732__B
*1648 ANTENNA__0734__A
*1649 ANTENNA__0735__B
*1650 ANTENNA__0737__B
*1651 ANTENNA__0739__B
*1652 ANTENNA__0741__B
*1653 ANTENNA__0743__B
*1654 ANTENNA__0745__A
*1655 ANTENNA__0756__B
*1656 ANTENNA__0759__A
*1657 ANTENNA__0760__A
*1658 ANTENNA__0760__B
*1659 ANTENNA__0761__B
*1660 ANTENNA__0762__B
*1661 ANTENNA__0763__B
*1662 ANTENNA__0764__B
*1663 ANTENNA__0765__B
*1664 ANTENNA__0766__A
*1665 ANTENNA__0766__B
*1666 ANTENNA__0767__A
*1667 ANTENNA__0767__B
*1668 ANTENNA__0768__A
*1669 ANTENNA__0770__A
*1670 ANTENNA__0771__A
*1671 ANTENNA__0782__A1
*1672 ANTENNA__0782__B1_N
*1673 ANTENNA__0783__A
*1674 ANTENNA__0784__A1
*1675 ANTENNA__0784__S
*1676 ANTENNA__0785__A
*1677 ANTENNA__0786__A0
*1678 ANTENNA__0786__A1
*1679 ANTENNA__0786__S
*1680 ANTENNA__0787__S
*1681 ANTENNA__0788__A
*1682 ANTENNA__0790__A
*1683 ANTENNA__0791__A
*1684 ANTENNA__0792__A
*1685 ANTENNA__0793__A
*1686 ANTENNA__0793__B
*1687 ANTENNA__0794__A
*1688 ANTENNA__0795__A2
*1689 ANTENNA__0795__B1
*1690 ANTENNA__0796__A
*1691 ANTENNA__0797__A
*1692 ANTENNA__0798__A
*1693 ANTENNA__0799__A
*1694 ANTENNA__0800__A
*1695 ANTENNA__0801__A
*1696 ANTENNA__0802__A1
*1697 ANTENNA__0802__C1
*1698 ANTENNA__0803__A
*1699 ANTENNA__0805__A
*1700 ANTENNA__0805__B
*1701 ANTENNA__0805__C
*1702 ANTENNA__0806__A1
*1703 ANTENNA__0806__A2
*1704 ANTENNA__0806__B1
*1705 ANTENNA__0808__A
*1706 ANTENNA__0809__A1
*1707 ANTENNA__0809__B1
*1708 ANTENNA__0809__C1
*1709 ANTENNA__0810__A
*1710 ANTENNA__0811__A
*1711 ANTENNA__0812__A2
*1712 ANTENNA__0812__B1
*1713 ANTENNA__0814__A
*1714 ANTENNA__0814__B
*1715 ANTENNA__0814__C
*1716 ANTENNA__0814__D
*1717 ANTENNA__0815__A
*1718 ANTENNA__0817__A
*1719 ANTENNA__0818__A1
*1720 ANTENNA__0818__C1
*1721 ANTENNA__0819__A
*1722 ANTENNA__0820__A2
*1723 ANTENNA__0820__B1
*1724 ANTENNA__0822__A
*1725 ANTENNA__0823__A
*1726 ANTENNA__0824__A1
*1727 ANTENNA__0824__C1
*1728 ANTENNA__0825__A
*1729 ANTENNA__0826__A2
*1730 ANTENNA__0826__B1
*1731 ANTENNA__0828__A
*1732 ANTENNA__0828__B
*1733 ANTENNA__0829__A1
*1734 ANTENNA__0829__B1
*1735 ANTENNA__0831__A
*1736 ANTENNA__0832__A1
*1737 ANTENNA__0832__A2
*1738 ANTENNA__0832__C1
*1739 ANTENNA__0833__A
*1740 ANTENNA__0834__A2
*1741 ANTENNA__0834__B1
*1742 ANTENNA__0836__A
*1743 ANTENNA__0837__A
*1744 ANTENNA__0838__A1
*1745 ANTENNA__0838__A2
*1746 ANTENNA__0838__C1
*1747 ANTENNA__0839__A1
*1748 ANTENNA__0839__B1
*1749 ANTENNA__0840__A2